/*--------------------------------*- C++ -*----------------------------------*\
| =========                 |                                                 |
| \\      /  F ield         | OpenFOAM: The Open Source CFD Toolbox           |
|  \\    /   O peration     | Version:  4.0                                   |
|   \\  /    A nd           | Web:      www.OpenFOAM.org                      |
|    \\/     M anipulation  |                                                 |
\*---------------------------------------------------------------------------*/
FoamFile
{
    version     2.0;
    format      ascii;
    class       dictionary;
    object      topoSetDict;
}

// * * * * * * * * * * * * * * * * * * * * * * * * * * * * * * * * * * * * * //

actions
(
    // porousBlockage
    {
        name    porousBlockageCellSet;
        type    cellSet;
        action  new;
        source  boxToCell;
        sourceInfo
        {
            
        	boxes ((3 0 0) (5 2.5 0.1) (8 1.5 0) (10 4 0.1) (13 0 0) (15 2.5 0.1) (18 1.5 0) (20 4 0.1));	
		}
    }
    {
        name    porousBlockage;
        type    cellZoneSet;
        action  new;
        source  setToCellZone;
        sourceInfo
        {
            set porousBlockageCellSet;
        }
    }
);

// ************************************************************************* //
